tests/fuzzer/corpus_json/21_random_030.json
{
  "version": "1.0",
  "type": "input",
  "is_batch": false,
  "attributes": {},
  "data": {
    "node": [
      {
        "id": 0,
        "u_rated": 10000.0
      },
      {
        "id": 1,
        "u_rated": 10000.0
      },
      {
        "id": 2,
        "u_rated": 10000.0
      },
      {
        "id": 3,
        "u_rated": 10000.0
      },
      {
        "id": 4,
        "u_rated": 10000.0
      },
      {
        "id": 5,
        "u_rated": 10000.0
      },
      {
        "id": 6,
        "u_rated": 10000.0
      },
      {
        "id": 7,
        "u_rated": 10000.0
      },
      {
        "id": 8,
        "u_rated": 10000.0
      },
      {
        "id": 9,
        "u_rated": 10000.0
      }
    ],
    "source": [
      {
        "id": 10,
        "node": 0,
        "status": 1,
        "u_ref": 1.0243752101862964,
        "u_ref_angle": 0.0,
        "sk": 611042239.1804597,
        "rx_ratio": 0.41352682638916627,
        "z01_ratio": 1.0
      }
    ],
    "line": [
      {
        "id": 11,
        "from_node": 0,
        "to_node": 1,
        "from_status": 1,
        "to_status": 1,
        "r1": 0.24237999309592917,
        "x1": 1.8808954820624795,
        "c1": 1.3407121590384252e-07,
        "tan1": 0.0,
        "r0": 0.3,
        "x0": 0.3,
        "c0": 1e-09,
        "tan0": 0.0,
        "i_n": 90.50429081110418
      },
      {
        "id": 12,
        "from_node": 1,
        "to_node": 2,
        "from_status": 1,
        "to_status": 1,
        "r1": 0.03803338831234737,
        "x1": 2.6117935401414325,
        "c1": 9.324003103574777e-07,
        "tan1": 0.0,
        "r0": 0.3,
        "x0": 0.3,
        "c0": 1e-09,
        "tan0": 0.0,
        "i_n": 35.592228784551075
      },
      {
        "id": 13,
        "from_node": 2,
        "to_node": 3,
        "from_status": 1,
        "to_status": 1,
        "r1": 4.999475000795014,
        "x1": 4.542684176635098,
        "c1": 8.160995140638553e-07,
        "tan1": 0.0,
        "r0": 0.3,
        "x0": 0.3,
        "c0": 1e-09,
        "tan0": 0.0,
        "i_n": 535.5157649389508
      },
      {
        "id": 14,
        "from_node": 3,
        "to_node": 4,
        "from_status": 1,
        "to_status": 1,
        "r1": 2.008895127928596,
        "x1": 4.159421535373621,
        "c1": 3.4840049993399356e-07,
        "tan1": 0.0,
        "r0": 0.3,
        "x0": 0.3,
        "c0": 1e-09,
        "tan0": 0.0,
        "i_n": 883.2492537569606
      },
      {
        "id": 15,
        "from_node": 4,
        "to_node": 5,
        "from_status": 1,
        "to_status": 1,
        "r1": 2.0070572578724493,
        "x1": 1.2430896910017086,
        "c1": 5.628178393242486e-07,
        "tan1": 0.0,
        "r0": 0.3,
        "x0": 0.3,
        "c0": 1e-09,
        "tan0": 0.0,
        "i_n": 287.00215835408585
      },
      {
        "id": 16,
        "from_node": 5,
        "to_node": 6,
        "from_status": 1,
        "to_status": 1,
        "r1": 2.144117190154361,
        "x1": 0.477434123825049,
        "c1": 2.7842980354072753e-07,
        "tan1": 0.0,
        "r0": 0.3,
        "x0": 0.3,
        "c0": 1e-09,
        "tan0": 0.0,
        "i_n": 566.6612922118893
      },
      {
        "id": 17,
        "from_node": 6,
        "to_node": 7,
        "from_status": 1,
        "to_status": 1,
        "r1": 4.849858623435721,
        "x1": 3.0673176979441346,
        "c1": 9.33746139028624e-07,
        "tan1": 0.0,
        "r0": 0.3,
        "x0": 0.3,
        "c0": 1e-09,
        "tan0": 0.0,
        "i_n": 138.0518288243671
      },
      {
        "id": 18,
        "from_node": 7,
        "to_node": 8,
        "from_status": 1,
        "to_status": 1,
        "r1": 1.5431138454778859,
        "x1": 1.5586220939468654,
        "c1": 5.069971314098125e-07,
        "tan1": 0.0,
        "r0": 0.3,
        "x0": 0.3,
        "c0": 1e-09,
        "tan0": 0.0,
        "i_n": 146.95472464555044
      },
      {
        "id": 19,
        "from_node": 8,
        "to_node": 9,
        "from_status": 1,
        "to_status": 1,
        "r1": 3.496917013623379,
        "x1": 0.5926189858330422,
        "c1": 2.8744328094468917e-08,
        "tan1": 0.0,
        "r0": 0.3,
        "x0": 0.3,
        "c0": 1e-09,
        "tan0": 0.0,
        "i_n": 917.2378573745535
      }
    ],
    "sym_load": [
      {
        "id": 20,
        "node": 1,
        "status": 1,
        "type": 0,
        "p_specified": 4748.497371468853,
        "q_specified": -6272.626299854518
      },
      {
        "id": 21,
        "node": 3,
        "status": 1,
        "type": 2,
        "p_specified": 89692.56629385237,
        "q_specified": 400.3687706071996
      },
      {
        "id": 22,
        "node": 4,
        "status": 1,
        "type": 2,
        "p_specified": 88968.76588869447,
        "q_specified": -514.9239483312631
      },
      {
        "id": 23,
        "node": 5,
        "status": 1,
        "type": 1,
        "p_specified": -49266.249566380524,
        "q_specified": -4888.0246439038765
      }
    ]
  }
}